Version 4
SHEET 1 1004 680
WIRE -784 -80 -864 -80
WIRE -688 -80 -704 -80
WIRE -656 -80 -688 -80
WIRE -432 -80 -592 -80
WIRE -864 -32 -864 -80
WIRE -592 -32 -592 -80
WIRE -688 -16 -688 -80
WIRE -432 -16 -432 -80
WIRE -752 64 -784 64
WIRE -736 64 -752 64
WIRE -688 80 -688 48
WIRE -864 112 -864 48
WIRE -688 112 -688 80
WIRE -592 112 -592 32
WIRE -432 112 -432 64
WIRE -768 128 -816 128
WIRE -752 128 -768 128
WIRE -816 176 -816 128
WIRE -816 256 -816 240
WIRE -816 288 -816 256
FLAG -864 112 0
FLAG -688 112 0
FLAG -592 112 0
FLAG -752 64 in3
FLAG -768 128 in3
FLAG -816 288 0
FLAG -432 112 0
SYMBOL voltage -864 -48 R0
WINDOW 123 0 0 Left 2
WINDOW 39 0 0 Left 2
WINDOW 0 -41 36 Right 2
WINDOW 3 -45 68 Right 2
SYMATTR InstName V1
SYMATTR Value 3
SYMBOL ind -800 -64 R270
WINDOW 0 32 56 VTop 2
WINDOW 3 5 56 VBottom 2
SYMATTR InstName L4
SYMATTR Value 10m
SYMBOL cap -608 -32 R0
SYMATTR InstName C2
SYMATTR Value 4700µ
SYMBOL nmos -736 -16 R0
WINDOW 0 -31 18 Left 2
WINDOW 3 -89 49 Left 2
SYMATTR InstName M5
SYMATTR Value IRFH5302
SYMBOL schottky -656 -64 R270
WINDOW 0 32 32 VTop 2
WINDOW 3 0 32 VBottom 2
SYMATTR InstName D5
SYMATTR Value MBRS1100
SYMBOL voltage -816 160 R0
WINDOW 123 0 0 Left 2
WINDOW 39 0 0 Left 2
WINDOW 3 -165 163 Left 2
SYMATTR Value PULSE(0 15V 0 1n 1n 155u 160u)
SYMATTR InstName V4
SYMBOL res -448 -32 R0
SYMATTR InstName R1
SYMATTR Value 1
TEXT -696 184 Left 2 !.tran 0 6 0 startup
