Version 4
SHEET 1 1004 680
WIRE -64 -832 -80 -832
WIRE -48 -832 -64 -832
WIRE -80 -784 -80 -832
WIRE -80 -672 -80 -704
WIRE -64 -528 -80 -528
WIRE -48 -528 -64 -528
WIRE -80 -480 -80 -528
WIRE -80 -368 -80 -400
WIRE -128 -208 -528 -208
WIRE -528 -160 -528 -208
WIRE -128 -144 -128 -208
WIRE -128 -144 -192 -144
WIRE -80 -144 -128 -144
WIRE -192 -112 -192 -144
WIRE -80 -112 -80 -144
WIRE 304 -64 208 -64
WIRE 368 -64 304 -64
WIRE 480 -64 416 -64
WIRE 640 -64 560 -64
WIRE 768 -64 640 -64
WIRE -256 -32 -272 -32
WIRE -240 -32 -256 -32
WIRE -16 -32 -32 -32
WIRE 0 -32 -16 -32
WIRE -528 -16 -528 -80
WIRE 208 -16 208 -64
WIRE 768 -16 768 -64
WIRE 416 0 416 -64
WIRE 416 0 368 0
WIRE 640 0 640 -64
WIRE -192 32 -192 -16
WIRE -176 32 -192 32
WIRE -80 32 -80 -16
WIRE -80 32 -96 32
WIRE 304 32 304 0
WIRE 416 32 304 32
WIRE 304 48 304 32
WIRE 368 48 368 0
WIRE -192 64 -192 32
WIRE -80 64 -80 32
WIRE 208 112 208 64
WIRE 304 112 208 112
WIRE 368 112 304 112
WIRE 416 112 416 32
WIRE 560 112 416 112
WIRE 640 112 640 64
WIRE 640 112 560 112
WIRE 768 112 768 64
WIRE 768 112 640 112
WIRE -256 144 -272 144
WIRE -240 144 -256 144
WIRE -16 144 -32 144
WIRE 0 144 -16 144
WIRE 560 144 560 112
WIRE -128 160 -192 160
WIRE -80 160 -128 160
WIRE -128 208 -128 160
FLAG -128 208 0
FLAG -528 -16 0
FLAG -80 -368 0
FLAG -64 -528 in1
FLAG -80 -672 0
FLAG -64 -832 in2
FLAG -256 -32 in1
FLAG -16 144 in1
FLAG -16 -32 in2
FLAG -256 144 in2
FLAG 560 144 0
SYMBOL nmos -240 -112 R0
WINDOW 0 -71 3 Left 2
WINDOW 3 -149 29 Left 2
SYMATTR InstName M1
SYMATTR Value IRFH5302
SYMBOL ind 464 -48 R270
WINDOW 0 32 56 VTop 2
WINDOW 3 5 56 VBottom 2
SYMATTR InstName L1
SYMATTR Value 10m
SYMBOL schottky 320 0 R180
WINDOW 0 8 110 Left 2
WINDOW 3 -20 82 Left 2
SYMATTR InstName D1
SYMATTR Value MBRS1100
SYMBOL voltage -528 -176 R0
WINDOW 123 0 0 Left 2
WINDOW 39 0 0 Left 2
WINDOW 0 -41 36 Right 2
WINDOW 3 -45 68 Right 2
SYMATTR InstName V1
SYMATTR Value 20
SYMBOL voltage -80 -496 R0
WINDOW 123 0 0 Left 2
WINDOW 39 0 0 Left 2
WINDOW 3 -165 163 Left 2
SYMATTR Value PULSE(0 15V 0 1n 1n 77u 160u)
SYMATTR InstName V2
SYMBOL ind2 -80 48 M270
WINDOW 0 32 56 VTop 2
WINDOW 3 4 56 VBottom 2
SYMATTR InstName L2
SYMATTR Value 1µ
SYMATTR Type ind
SYMBOL ind2 224 80 R180
WINDOW 0 -32 71 Left 2
WINDOW 3 -44 42 Left 2
SYMATTR InstName L3
SYMATTR Value 1.5m
SYMATTR Type ind
SYMBOL schottky 352 -64 R0
WINDOW 0 30 -55 Left 2
WINDOW 3 15 -17 Left 2
SYMATTR InstName D2
SYMATTR Value MBRS1100
SYMBOL voltage -80 -800 R0
WINDOW 123 0 0 Left 2
WINDOW 39 0 0 Left 2
WINDOW 3 -165 163 Left 2
SYMATTR Value PULSE(0 15V 80u 1n 1n 77u 160u)
SYMATTR InstName V3
SYMBOL nmos -240 64 R0
WINDOW 0 -71 3 Left 2
WINDOW 3 -149 29 Left 2
SYMATTR InstName M2
SYMATTR Value IRFH5302
SYMBOL nmos -32 -112 M0
WINDOW 0 -71 3 Left 2
WINDOW 3 -149 29 Left 2
SYMATTR InstName M3
SYMATTR Value IRFH5302
SYMBOL nmos -32 64 M0
WINDOW 0 -71 3 Left 2
WINDOW 3 -149 29 Left 2
SYMATTR InstName M4
SYMATTR Value IRFH5302
SYMBOL schottky 384 112 R180
WINDOW 0 -9 -21 Left 2
WINDOW 3 48 -65 Left 2
SYMATTR InstName D3
SYMATTR Value MBRS1100
SYMBOL schottky 288 48 R0
WINDOW 0 -6 99 Left 2
WINDOW 3 76 114 Left 2
SYMATTR InstName D4
SYMATTR Value MBRS1100
SYMBOL cap 624 0 R0
SYMATTR InstName C1
SYMATTR Value 4700µ
SYMBOL res 752 -32 R0
SYMATTR InstName R1
SYMATTR Value 300
TEXT 48 344 Left 2 !.tran 0 10 0 1 startup
TEXT -8 24 Left 2 !K1 L2 L3 .98
